 &diagnostics_list 
    dumpatlast = .TRUE., 

#---
frequency(1) = 2635200.0,
fields(1,1)  = 'SSH',
filename(1)  = 'diags/SSH_mon_mean/SSH_mon_mean',

#---
frequency(2) = 2635200.0,
fields(1,2)  = 'OBP',
filename(2)  = 'diags/OBP_mon_mean/OBP_mon_mean',
fileFlags(2) = 'D       ',

#---
frequency(3) = 2635200.0,
fields(1,3)  = 'THETA', 'SALT'
filename(3)  = 'diags/state3d_mon_mean',

#---

  /

 &DIAG_STATIS_PARMS

  /
